 Case_ID  AeroDyn15  AeroDyn15   DLC    DLC       DLC      ElastoDyn      ElastoDyn           ElastoDyn           ElastoDyn       ElastoDyn      ElastoDyn      Fst    Fst    HydroDyn  HydroDyn   HydroDyn   HydroDyn  HydroDyn                                                                                    InflowWind                                                                                                                                                                      InflowWind                                                                                      InflowWind    InflowWind      InflowWind     InflowWind   ServoDyn   ServoDyn   ServoDyn 
          AFAeroMod   WakeMod   Label  MeanWS   WindSeed    Azimuth        BlPitch1            BlPitch2            BlPitch3         NacYaw        RotSpeed      TMax  TStart  WaveDir    WaveHs   WavePkShp  WaveSeed1   WaveTp                                                                                    FileName_BTS                                                                                                                                                                    Filename_Uni                                                                                   PropagationDir  RefHt_Uni       RefLength       WindType   TPitManS1  TPitManS2  TPitManS3 
    0         2          1       1.3    15.0   1501552846      0      13.962367095285256  13.962367095285256  13.962367095285256     0.0     7.893804840084922  15.0   0.0      0.0      2.395       0.0     304524126    7.55    /home/mertzb/Documents/Current_WT_Codes/Gerrit_WEIS/WEIS-DAC_bb_featuredevelopment/examples/07_te_flaps/temp/BAR10_BangBang_02/wind/BAR10_3ETM_U15.000000_Seed1501552846.0.bts  /home/mertzb/Documents/Current_WT_Codes/Gerrit_WEIS/WEIS-DAC_bb_featuredevelopment/examples/07_te_flaps/temp/BAR10_BangBang_02/wind/BAR10_3ETM_U15.000000_Seed1501552846.0.bts       0.0          140.0     205.6524644862981      3          9999       9999       9999   
