 Case_ID      ElastoDyn           ElastoDyn           ElastoDyn       ElastoDyn      ElastoDyn          Fst         Fst     Fst    Fst       Fst       Fst   InflowWind  InflowWind                         ServoDyn                         ServoDyn  ServoDyn 
               BlPitch1            BlPitch2            BlPitch3         GenDOF        RotSpeed       CompInflow  CompServo   DT   DT_Out  OutFileFmt   TMax  HWindSpeed   WindType                        DLL_FileName                        PCMode   VSContrl 
    0            0.0                 0.0                 0.0             True    2.019140272160114       1           1      0.01   0.02       0       200.0     3.0          1       /Users/agmotes/gitRepos/WEIS/local/lib/libdiscon.dylib     5         5     
    1            0.0                 0.0                 0.0             True    5.1123509774611025      1           1      0.01   0.02       0       200.0     7.0          1       /Users/agmotes/gitRepos/WEIS/local/lib/libdiscon.dylib     5         5     
    2     1.5058525323662666  1.5058525323662666  1.5058525323662666     True    7.514186181824161       1           1      0.01   0.02       0       200.0     11.0         1       /Users/agmotes/gitRepos/WEIS/local/lib/libdiscon.dylib     5         5     
    3      10.8972969450052    10.8972969450052    10.8972969450052      True    7.630243938880304       1           1      0.01   0.02       0       200.0     15.0         1       /Users/agmotes/gitRepos/WEIS/local/lib/libdiscon.dylib     5         5     
    4     16.53735488246438   16.53735488246438   16.53735488246438      True     7.60743945212863       1           1      0.01   0.02       0       200.0     19.0         1       /Users/agmotes/gitRepos/WEIS/local/lib/libdiscon.dylib     5         5     
    5     21.238680277668898  21.238680277668898  21.238680277668898     True    7.607153933765292       1           1      0.01   0.02       0       200.0     23.0         1       /Users/agmotes/gitRepos/WEIS/local/lib/libdiscon.dylib     5         5     
