 Case_ID  AeroDyn15  AeroDyn15   DLC    DLC       DLC      ElastoDyn  ElastoDyn  ElastoDyn  ElastoDyn  ElastoDyn      ElastoDyn       Fst    Fst    HydroDyn  HydroDyn   HydroDyn   HydroDyn   HydroDyn                                                          InflowWind                                                                                                                  InflowWind                                                            InflowWind        InflowWind      InflowWind  InflowWind   ServoDyn   ServoDyn   ServoDyn 
          AFAeroMod   WakeMod   Label  MeanWS   WindSeed    Azimuth    BlPitch1   BlPitch2   BlPitch3    NacYaw        RotSpeed       TMax  TStart  WaveDir    WaveHs   WavePkShp  WaveSeed1    WaveTp                                                          FileName_BTS                                                                                                                Filename_Uni                                                         PropagationDir      RefHt_Uni       RefLength    WindType   TPitManS1  TPitManS2  TPitManS3 
    0         2          1       1.1    16.0   1501552846      0         15.0       15.0       15.0       0.0     7.5599999913614395  10.1   0.1      0.0       2.6        0.0     304524126     7.64    /Users/agmotes/gitRepos/WEIS/examples/02_control_opt/outputs/02_control_opt/wind/IEA15_NTM_U16.000000_Seed1501552846.0.bts  /Users/agmotes/gitRepos/WEIS/examples/02_control_opt/outputs/02_control_opt/wind/IEA15_NTM_U16.000000_Seed1501552846.0.bts       0.0        148.73499999999999    241.94        3          9999       9999       9999   
    1         1          0       6.1   46.789  488200390       0         90.0       90.0       90.0       -8.0           0.0          10.1   0.1      0.0       15.0       0.0     1192975140    15.0    /Users/agmotes/gitRepos/WEIS/examples/02_control_opt/outputs/02_control_opt/wind/IEA15_NTM_U46.789000_Seed488200390.0.bts   /Users/agmotes/gitRepos/WEIS/examples/02_control_opt/outputs/02_control_opt/wind/IEA15_NTM_U46.789000_Seed488200390.0.bts        0.0        148.73499999999999    241.94        3           0          0          0     
    2         1          0       6.1   46.789  1693606511      0         90.0       90.0       90.0       8.0            0.0          10.1   0.1      0.0       15.0       0.0     1668389755    15.0    /Users/agmotes/gitRepos/WEIS/examples/02_control_opt/outputs/02_control_opt/wind/IEA15_NTM_U46.789000_Seed1693606511.0.bts  /Users/agmotes/gitRepos/WEIS/examples/02_control_opt/outputs/02_control_opt/wind/IEA15_NTM_U46.789000_Seed1693606511.0.bts       0.0        148.73499999999999    241.94        3           0          0          0     
